data/network_N/new_line.txt
New Line.line_75587985_6802_6623 Units=km Length=0.009100000381469726 bus1=6623.1.2.3.4 bus2=6802.1.2.3.4 switch=n enabled=y phases=3 Geometry=OH_Sultana_hori4w
New Line.line_75587987_6822_6625 Units=km Length=0.008300000190734864 bus1=6625.3.4 bus2=6822.3.4 switch=n enabled=y phases=1 Geometry=OH_Sultana_hori2w
New Line.line_75588022_6986_6660 Units=km Length=0.03570000076293946 bus1=6660.1.2.3.4 bus2=6986.1.2.3.4 switch=n enabled=y phases=3 Geometry=OH_Mars_hori4w
New Line.line_75588041_7191_6679 Units=km Length=0.021700000762939455 bus1=6679.1.2.3.4 bus2=7191.1.2.3.4 switch=n enabled=y phases=3 Geometry=Cable_LVABC4x95
New Line.line_75588050_6732_6687 Units=km Length=0.055700000762939454 bus1=6687.1.2.3.4 bus2=6732.1.2.3.4 switch=n enabled=y phases=3 Geometry=Cable_LVABC4x95
New Line.line_75588075_6875_6694 Units=km Length=0.007 bus1=6694.3.4 bus2=6875.3.4 switch=n enabled=y phases=1 Geometry=OH_Sultana_hori2w
New Line.line_75588076_6694_6625 Units=km Length=0.0335 bus1=6625.1.2.3.4 bus2=6694.1.2.3.4 switch=n enabled=y phases=3 Geometry=OH_Mars_hori4w
New Line.line_75588083_7146_6715 Units=km Length=0.021500000000000002 bus1=6715.1.2.3.4 bus2=7146.1.2.3.4 switch=n enabled=y phases=3 Geometry=OH_Sultana_hori4w
New Line.line_75588103_6679_6715 Units=km Length=0.055099998474121094 bus1=6715.1.2.3.4 bus2=6679.1.2.3.4 switch=n enabled=y phases=3 Geometry=Cable_LVABC4x95
New Line.line_75588104_6802_6732 Units=km Length=0.04229999923706055 bus1=6732.1.2.3.4 bus2=6802.1.2.3.4 switch=n enabled=y phases=3 Geometry=OH_Libra_hori4w
New Line.line_75588187_7218_6801 Units=km Length=0.007099999904632569 bus1=6801.1.2.3.4 bus2=7218.1.2.3.4 switch=n enabled=y phases=3 Geometry=OH_Mars_hori4w
New Line.line_75588213_7236_6679 Units=km Length=0.0155 bus1=6679.1.4 bus2=7236.1.4 switch=n enabled=y phases=1 Geometry=OH_Sultana_hori2w
New Line.line_75588221_7244_6822 Units=km Length=0.012600000381469727 bus1=6822.3.4 bus2=7244.3.4 switch=n enabled=y phases=1 Geometry=OH_Sultana_hori2w
New Line.line_75588300_7322_6875 Units=km Length=0.019700000762939453 bus1=6875.3.4 bus2=7322.3.4 switch=n enabled=y phases=1 Geometry=OH_Sultana_hori2w
New Line.line_75588_7331_6715 Units=km Length=0.026799999237060546 bus1=6715.1.4 bus2=7331.1.4 switch=n enabled=y phases=1 Geometry=OH_Sultana_hori2w
New Line.line_75588370_7390_6913 Units=km Length=0.009800000190734863 bus1=6913.3.4 bus2=7390.3.4 switch=n enabled=y phases=1 Geometry=OH_Sultana_hori2w
New Line.line_75588378_7397_6822 Units=km Length=0.014600000381469727 bus1=6822.3.4 bus2=7397.3.4 switch=n enabled=y phases=1 Geometry=OH_Sultana_hori2w
New Line.line_75588381_7400_6918 Units=km Length=0.014600000381469727 bus1=6918.1.4 bus2=7400.1.4 switch=n enabled=y phases=1 Geometry=OH_Sultana_hori2w
New Line.line_75588398_7416_6925 Units=km Length=0.03720000076293945 bus1=6925.3.4 bus2=7416.3.4 switch=n enabled=y phases=1 Geometry=OH_Sultana_hori2w
New Line.line_75588399_7416_6925 Units=km Length=0.03720000076293945 bus1=6925.3.4 bus2=7416.3.4 switch=n enabled=y phases=1 Geometry=OH_Sultana_hori2w
New Line.line_75588418_7426_6936 Units=km Length=0.014300000190734864 bus1=6936.1.4 bus2=7426.1.4 switch=n enabled=y phases=1 Geometry=OH_Sultana_hori2w
New Line.line_75588429_7432_6942 Units=km Length=0.010300000190734864 bus1=6942.1.2.3.4 bus2=7432.1.2.3.4 switch=n enabled=y phases=3 Geometry=OH_Sultana_hori4w
New Line.line_75588437_7439_6946 Units=km Length=0.04079999923706055 bus1=6946.1.2.3.4 bus2=7439.1.2.3.4 switch=n enabled=y phases=3 Geometry=OH_Libra_hori4w
New Line.line_75588443_7022_6942 Units=km Length=0.013100000381469726 bus1=6942.1.2.3.4 bus2=7022.1.2.3.4 switch=n enabled=y phases=3 Geometry=OH_Sultana_hori4w
New Line.line_75588446_6694_6952 Units=km Length=0.014800000190734864 bus1=6952.1.4 bus2=6694.1.4 switch=n enabled=y phases=1 Geometry=OH_Sultana_hori2w
New Line.line_75588509_7022_6679 Units=km Length=0.051000000000000004 bus1=6679.1.2.3.4 bus2=7022.1.2.3.4 switch=n enabled=y phases=3 Geometry=OH_Mars_hori4w
New Line.line_75588520_6925_6985 Units=km Length=0.0475 bus1=6985.1.2.3.4 bus2=6925.1.2.3.4 switch=n enabled=y phases=3 Geometry=OH_Mars_hori4w
New Line.line_75588521_7017_6660 Units=km Length=0.011399999618530273 bus1=6660.2.4 bus2=7017.2.4 switch=n enabled=y phases=1 Geometry=OH_Sultana_hori2w
New Line.line_75588522_6918_6986 Units=km Length=0.011 bus1=6986.1.4 bus2=6918.1.4 switch=n enabled=y phases=1 Geometry=OH_Sultana_hori2w
New Line.line_75588541_7485_6715 Units=km Length=0.021200000762939455 bus1=6715.1.4 bus2=7485.1.4 switch=n enabled=y phases=1 Geometry=OH_Sultana_hori2w
New Line.line_75588545_7488_6660 Units=km Length=0.024399999618530274 bus1=6660.1.4 bus2=7488.1.4 switch=n enabled=y phases=1 Geometry=OH_Sultana_hori2w
New Line.line_75588579_7499_7017 Units=km Length=0.016799999237060548 bus1=7017.2.4 bus2=7499.2.4 switch=n enabled=y phases=1 Geometry=OH_Sultana_hori2w
New Line.line_75588588_7508_6985 Units=km Length=0.02 bus1=6985.3.4 bus2=7508.3.4 switch=n enabled=y phases=1 Geometry=OH_Sultana_hori2w
New Line.line_75588589_7508_6985 Units=km Length=0.02 bus1=6985.3.4 bus2=7508.3.4 switch=n enabled=y phases=1 Geometry=OH_Sultana_hori2w
New Line.line_75588593_7512_6679 Units=km Length=0.029 bus1=6679.2.4 bus2=7512.2.4 switch=n enabled=y phases=1 Geometry=OH_Sultana_hori2w
New Line.line_75588595_7513_7020 Units=km Length=0.014199999809265137 bus1=7020.2.4 bus2=7513.2.4 switch=n enabled=y phases=1 Geometry=OH_Sultana_hori2w
New Line.line_75588599_7516_7022 Units=km Length=0.013800000190734863 bus1=7022.3.4 bus2=7516.3.4 switch=n enabled=y phases=1 Geometry=OH_Sultana_hori2w
New Line.line_75588609_7525_7025 Units=km Length=0.013000000000000001 bus1=7025.1.4 bus2=7525.1.4 switch=n enabled=y phases=1 Geometry=OH_Sultana_hori2w
!New Line.line_75588636_7025_6687 Units=km Length=0.013399999618530273 bus1=6687.1.4 bus2=7025.1.4 switch=n enabled=y phases=1 Geometry=OH_Sultana_hori2w
New Line.line_75588639_6985_6732 Units=km Length=0.03929999923706055 bus1=6732.1.2.3.4 bus2=6985.1.2.3.4 switch=n enabled=y phases=3 Geometry=Cable_LVABC4x95
New Line.line_75588645_6801_6925 Units=km Length=0.0395 bus1=6925.1.2.3.4 bus2=6801.1.2.3.4 switch=n enabled=y phases=3 Geometry=OH_Mars_hori4w
New Line.line_75588687_7570_6801 Units=km Length=0.027600000381469727 bus1=6801.1.4 bus2=7570.1.4 switch=n enabled=y phases=1 Geometry=OH_Sultana_hori2w
New Line.line_75588698_7574_7059 Units=km Length=0.014100000381469727 bus1=7059.2.4 bus2=7574.2.4 switch=n enabled=y phases=1 Geometry=OH_Sultana_hori2w
New Line.line_75588699_7574_7059 Units=km Length=0.014100000381469727 bus1=7059.2.4 bus2=7574.2.4 switch=n enabled=y phases=1 Geometry=OH_Sultana_hori2w
New Line.line_75588758_6625_6660 Units=km Length=0.0360999984741211 bus1=6660.1.2.3.4 bus2=6625.1.2.3.4 switch=n enabled=y phases=3 Geometry=OH_Mars_hori4w
New Line.line_75588788_7628_6875 Units=km Length=0.016399999618530274 bus1=6875.3.4 bus2=7628.3.4 switch=n enabled=y phases=1 Geometry=OH_Sultana_hori2w
New Line.line_75588828_7649_6660 Units=km Length=0.02 bus1=6660.3.4 bus2=7649.3.4 switch=n enabled=y phases=1 Geometry=OH_Sultana_hori2w
New Line.line_75588829_7650_6986 Units=km Length=0.020299999237060547 bus1=6986.2.4 bus2=7650.2.4 switch=n enabled=y phases=1 Geometry=OH_Sultana_hori2w
New Line.line_75588886_7687_7025 Units=km Length=0.017299999237060548 bus1=7025.1.4 bus2=7687.1.4 switch=n enabled=y phases=1 Geometry=OH_Sultana_hori2w
!New Line.line_75588890_7691_6687 Units=km Length=0.018100000381469725 bus1=6687.2.4 bus2=7691.2.4 switch=n enabled=y phases=1 Geometry=OH_Sultana_hori2w
New Line.line_75588911_7146_6715 Units=km Length=0.021500000000000002 bus1=6715.1.2.3.4 bus2=7146.1.2.3.4 switch=n enabled=y phases=3 Geometry=OH_Sultana_hori4w
New Line.line_75588936_7717_6986 Units=km Length=0.021700000762939455 bus1=6986.2.4 bus2=7717.2.4 switch=n enabled=y phases=1 Geometry=OH_Sultana_hori2w
New Line.line_75588943_6913_6679 Units=km Length=0.010600000381469727 bus1=6679.3.4 bus2=6913.3.4 switch=n enabled=y phases=1 Geometry=OH_Sultana_hori2w
New Line.line_75588954_7729_6946 Units=km Length=0.011699999809265137 bus1=6946.1.4 bus2=7729.1.4 switch=n enabled=y phases=1 Geometry=OH_Sultana_hori2w
New Line.line_75588955_7729_6946 Units=km Length=0.011699999809265137 bus1=6946.1.4 bus2=7729.1.4 switch=n enabled=y phases=1 Geometry=OH_Sultana_hori2w
New Line.line_75588978_7741_6925 Units=km Length=0.015399999618530273 bus1=6925.1.4 bus2=7741.1.4 switch=n enabled=y phases=1 Geometry=OH_Sultana_hori2w
New Line.line_75588989_6936_6802 Units=km Length=0.015899999618530274 bus1=6802.1.2.4 bus2=6936.1.2.4 switch=n enabled=y phases=2 Geometry=OH_Sultana_flat
New Line.line_75588992_7747_6918 Units=km Length=0.014100000381469727 bus1=6918.1.4 bus2=7747.1.4 switch=n enabled=y phases=1 Geometry=OH_Sultana_hori2w
New Line.line_75589011_7759_6936 Units=km Length=0.013399999618530273 bus1=6936.1.4 bus2=7759.1.4 switch=n enabled=y phases=1 Geometry=OH_Sultana_hori2w
New Line.line_75589040_7059_7022 Units=km Length=0.0165 bus1=7022.1.2.3.4 bus2=7059.1.2.3.4 switch=n enabled=y phases=3 Geometry=OH_Sultana_hori4w
New Line.line_75589041_7020_6732 Units=km Length=0.02179999923706055 bus1=6732.2.4 bus2=7020.2.4 switch=n enabled=y phases=1 Geometry=OH_Sultana_hori2w
New Line.line_75589050_7779_7146 Units=km Length=0.02160000038146973 bus1=7146.1.2.3.4 bus2=7779.1.2.3.4 switch=n enabled=y phases=3 Geometry=OH_Sultana_hori4w
!New Line.line_75589062_7785_6687 Units=km Length=0.023600000381469727 bus1=6687.3.4 bus2=7785.3.4 switch=n enabled=y phases=1 Geometry=OH_Sultana_hori2w
New Line.line_75589067_7218_6986 Units=km Length=0.043000000000000003 bus1=6986.1.2.3.4 bus2=7218.1.2.3.4 switch=n enabled=y phases=3 Geometry=OH_Mars_hori4w
New Line.line_75589078_7153_7022 Units=km Length=0.018899999618530273 bus1=7022.1.2.3.4 bus2=7153.1.2.3.4 switch=n enabled=y phases=3 Geometry=OH_Mars_hori4w
New Line.line_75589079_6946_7153 Units=km Length=0.019399999618530273 bus1=7153.1.2.3.4 bus2=6946.1.2.3.4 switch=n enabled=y phases=3 Geometry=OH_Sultana_hori4w
New Line.line_75589080_7153_6687 Units=km Length=0.03490000152587891 bus1=6687.1.2.3.4 bus2=7153.1.2.3.4 switch=n enabled=y phases=3 Geometry=OH_Mars_hori4w
New Line.line_75591585_8017_7432 Units=km Length=0.0077972685762235545 bus1=7432.2.4 bus2=8017.2.4 switch=n enabled=y phases=1 Geometry=Cable_LVABC2x50
New Line.line_75591586_8018_7516 Units=km Length=0.018590322858620407 bus1=7516.3.4 bus2=8018.3.4 switch=n enabled=y phases=1 Geometry=Cable_LVABC2x50
New Line.line_75591587_8019_6623 Units=km Length=0.042346552987117696 bus1=6623.1.2.3.4 bus2=8019.1.2.3.4 switch=n enabled=y phases=3 Geometry=Cable_LVABC4x50
New Line.line_75591623_8055_7218 Units=km Length=0.03271674388259654 bus1=7218.3.4 bus2=8055.3.4 switch=n enabled=y phases=1 Geometry=Cable_LVABC2x50
New Line.line_75591624_8056_6801 Units=km Length=0.01583316008389995 bus1=6801.1.4 bus2=8056.1.4 switch=n enabled=y phases=1 Geometry=Cable_LVABC2x50
New Line.line_75591625_8057_6625 Units=km Length=0.02016409716700554 bus1=6625.3.4 bus2=8057.3.4 switch=n enabled=y phases=1 Geometry=Cable_LVABC2x50
New Line.line_75591626_8058_7439 Units=km Length=0.01813393413616209 bus1=7439.3.4 bus2=8058.3.4 switch=n enabled=y phases=1 Geometry=Cable_LVABC2x50
New Line.line_75591627_8059_7439 Units=km Length=0.02987297375950817 bus1=7439.3.4 bus2=8059.3.4 switch=n enabled=y phases=1 Geometry=Cable_LVABC2x50
New Line.line_75591628_8060_7439 Units=km Length=0.01813393413616209 bus1=7439.2.4 bus2=8060.2.4 switch=n enabled=y phases=1 Geometry=Cable_LVABC2x50
New Line.line_75591629_8061_7439 Units=km Length=0.02987297375950817 bus1=7439.3.4 bus2=8061.3.4 switch=n enabled=y phases=1 Geometry=Cable_LVABC2x50
New Line.line_75591630_8062_7439 Units=km Length=0.03479738494844637 bus1=7439.1.4 bus2=8062.1.4 switch=n enabled=y phases=1 Geometry=Cable_LVABC2x50
New Line.line_75591631_8063_7439 Units=km Length=0.03479738494844637 bus1=7439.1.4 bus2=8063.1.4 switch=n enabled=y phases=1 Geometry=Cable_LVABC2x50
New Line.line_75591632_8064_6952 Units=km Length=0.029064378149587494 bus1=6952.1.4 bus2=8064.1.4 switch=n enabled=y phases=1 Geometry=Cable_LVABC2x50
New Line.line_75591633_8065_6952 Units=km Length=0.029064378149587494 bus1=6952.1.4 bus2=8065.1.4 switch=n enabled=y phases=1 Geometry=Cable_LVABC2x50
New Line.line_75591634_8066_7779 Units=km Length=0.018654892394235158 bus1=7779.3.4 bus2=8066.3.4 switch=n enabled=y phases=1 Geometry=Cable_LVABC2x50
New Line.line_75591635_8067_7574 Units=km Length=0.008965894895245888 bus1=7574.2.4 bus2=8067.2.4 switch=n enabled=y phases=1 Geometry=Cable_LVABC2x50
New Line.line_75591636_8068_7574 Units=km Length=0.008965894895245888 bus1=7574.2.4 bus2=8068.2.4 switch=n enabled=y phases=1 Geometry=Cable_LVABC2x50
New Line.line_75591637_8069_7574 Units=km Length=0.008965894895245888 bus1=7574.2.4 bus2=8069.2.4 switch=n enabled=y phases=1 Geometry=Cable_LVABC2x50
New Line.line_75591638_8070_7574 Units=km Length=0.008965894895245888 bus1=7574.2.4 bus2=8070.2.4 switch=n enabled=y phases=1 Geometry=Cable_LVABC2x50
New Line.line_75591639_8071_7574 Units=km Length=0.008965894895245888 bus1=7574.2.4 bus2=8071.2.4 switch=n enabled=y phases=1 Geometry=Cable_LVABC2x50
New Line.line_75591640_8072_7574 Units=km Length=0.008965894895245888 bus1=7574.2.4 bus2=8072.2.4 switch=n enabled=y phases=1 Geometry=Cable_LVABC2x50
New Line.line_75591641_8073_7729 Units=km Length=0.014494363154944732 bus1=7729.1.4 bus2=8073.1.4 switch=n enabled=y phases=1 Geometry=Cable_LVABC2x50
New Line.line_75591642_8074_7729 Units=km Length=0.014494363154944732 bus1=7729.1.4 bus2=8074.1.4 switch=n enabled=y phases=1 Geometry=Cable_LVABC2x50
New Line.line_75591643_8075_7729 Units=km Length=0.014494363154944732 bus1=7729.1.4 bus2=8075.1.4 switch=n enabled=y phases=1 Geometry=Cable_LVABC2x50
New Line.line_75591644_8076_7390 Units=km Length=0.021258494514335338 bus1=7390.3.4 bus2=8076.3.4 switch=n enabled=y phases=1 Geometry=Cable_LVABC2x50
New Line.line_75591741_8173_7741 Units=km Length=0.01935751963059129 bus1=7741.1.4 bus2=8173.1.4 switch=n enabled=y phases=1 Geometry=Cable_LVABC2x50
New Line.line_75591753_8185_7508 Units=km Length=0.007889327046644492 bus1=7508.3.4 bus2=8185.3.4 switch=n enabled=y phases=1 Geometry=Cable_LVABC2x50
New Line.line_75591779_8211_7191 Units=km Length=0.023834020182720184 bus1=7191.1.4 bus2=8211.1.4 switch=n enabled=y phases=1 Geometry=Cable_LVABC2x50
New Line.line_75591837_8269_7432 Units=km Length=0.0077972685762235545 bus1=7432.3.4 bus2=8269.3.4 switch=n enabled=y phases=1 Geometry=Cable_LVABC2x50
New Line.line_75591857_8289_7508 Units=km Length=0.007889327046644492 bus1=7508.3.4 bus2=8289.3.4 switch=n enabled=y phases=1 Geometry=Cable_LVABC2x50
New Line.line_75591903_8335_6732 Units=km Length=0.011275665003028009 bus1=6732.3.4 bus2=8335.3.4 switch=n enabled=y phases=1 Geometry=Cable_LVABC2x50
New Line.line_75591904_8336_6623 Units=km Length=0.0235329552596859 bus1=6623.2.4 bus2=8336.2.4 switch=n enabled=y phases=1 Geometry=Cable_LVABC2x50
New Line.line_75591946_8378_7512 Units=km Length=0.045608844232666985 bus1=7512.2.4 bus2=8378.2.4 switch=n enabled=y phases=1 Geometry=Cable_LVABC2x50
New Line.line_75591990_8422_7432 Units=km Length=0.0077972685762235545 bus1=7432.1.4 bus2=8422.1.4 switch=n enabled=y phases=1 Geometry=Cable_LVABC2x50
New Line.line_75592056_8488_7331 Units=km Length=0.027000651033817685 bus1=7331.1.4 bus2=8488.1.4 switch=n enabled=y phases=1 Geometry=Cable_LVABC2x50
New Line.line_75592104_8536_7488 Units=km Length=0.013295968862261838 bus1=7488.1.4 bus2=8536.1.4 switch=n enabled=y phases=1 Geometry=Cable_LVABC2x50
